Version 4
SHEET 1 1416 852
WIRE 160 -128 16 -128
WIRE 176 -128 160 -128
WIRE 288 -128 256 -128
WIRE 416 -128 288 -128
WIRE 16 -96 16 -128
WIRE 416 -96 416 -128
WIRE 160 -64 160 -128
WIRE 288 -64 288 -128
WIRE 16 0 16 -32
WIRE 80 0 16 0
WIRE 416 0 416 -32
WIRE 416 0 368 0
WIRE -144 96 -240 96
WIRE -64 96 -144 96
WIRE 80 96 -64 96
WIRE 624 96 368 96
WIRE 688 96 624 96
WIRE 784 96 688 96
WIRE 928 96 784 96
WIRE 976 96 928 96
WIRE 1088 96 1056 96
WIRE 1232 96 1088 96
WIRE -240 112 -240 96
WIRE -144 112 -144 96
WIRE 688 112 688 96
WIRE 928 112 928 96
WIRE 1088 112 1088 96
WIRE 1232 112 1232 96
WIRE 448 144 400 144
WIRE 528 144 448 144
WIRE 624 144 624 96
WIRE 624 144 608 144
WIRE 448 160 448 144
WIRE -64 192 -64 96
WIRE -32 192 -64 192
WIRE 80 192 48 192
WIRE 400 192 400 144
WIRE 400 192 368 192
WIRE 688 192 688 176
WIRE 784 192 784 96
WIRE 928 192 928 176
WIRE 1088 192 1088 176
WIRE 1088 192 928 192
WIRE -240 208 -240 192
WIRE -144 208 -144 176
WIRE 928 208 928 192
WIRE 1232 208 1232 192
WIRE 448 256 448 240
WIRE 80 288 -32 288
WIRE 688 288 688 272
WIRE 688 288 368 288
WIRE 784 288 784 272
WIRE 784 288 688 288
WIRE 784 304 784 288
WIRE -112 384 -128 384
WIRE -32 384 -32 288
WIRE -32 384 -48 384
WIRE -16 384 -32 384
WIRE 80 384 64 384
WIRE 448 384 368 384
WIRE 464 384 448 384
WIRE 608 384 544 384
WIRE 688 384 688 288
WIRE 688 384 672 384
WIRE 784 400 784 384
WIRE 160 464 160 448
WIRE 288 464 288 448
WIRE 384 464 288 464
WIRE 448 464 448 384
WIRE 528 464 448 464
WIRE 688 464 688 384
WIRE 688 464 592 464
WIRE 288 480 288 464
WIRE 384 480 384 464
WIRE 288 576 288 544
WIRE 384 576 384 560
FLAG 160 464 0
FLAG 288 576 0
FLAG 384 576 0
FLAG -128 384 0
FLAG -240 208 0
FLAG -240 96 IN
FLAG 784 400 0
FLAG 928 208 0
FLAG 1232 208 0
FLAG 1232 96 OUT
FLAG 448 256 0
FLAG -144 208 0
FLAG 784 96 PreFilter
SYMBOL PowerProducts\\LTC3112 224 192 R0
SYMATTR InstName U1
SYMBOL res 368 464 R0
SYMATTR InstName R1
SYMATTR Value 42.2K
SYMBOL cap 272 480 R0
SYMATTR InstName C1
SYMATTR Value 100p
SYMBOL cap -48 400 M270
WINDOW 0 32 32 VTop 2
WINDOW 3 0 32 VBottom 2
SYMATTR InstName C2
SYMATTR Value 1µ
SYMBOL voltage -240 96 R0
WINDOW 123 0 0 Left 2
WINDOW 39 0 0 Left 2
SYMATTR InstName V1
SYMATTR Value 12.6
SYMBOL cap 0 -96 R0
SYMATTR InstName C3
SYMATTR Value 0.1µ
SYMBOL ind 160 -112 R270
WINDOW 0 32 56 VTop 2
WINDOW 3 5 56 VBottom 2
SYMATTR InstName L1
SYMATTR Value 4.7µ
SYMBOL cap 400 -96 R0
SYMATTR InstName C4
SYMATTR Value 0.1µ
SYMBOL res 768 176 R0
SYMATTR InstName R2
SYMATTR Value 287k
SYMBOL res 768 288 R0
SYMATTR InstName R3
SYMATTR Value 28k
SYMBOL cap 672 112 R0
WINDOW 39 24 77 Left 2
SYMATTR InstName C5
SYMATTR Value 47p
SYMBOL cap 912 112 R0
SYMATTR InstName C6
SYMATTR Value 47µ
SYMBOL res 64 176 R90
WINDOW 0 0 56 VBottom 2
WINDOW 3 32 56 VTop 2
SYMATTR InstName R4
SYMATTR Value 100k
SYMBOL res 80 368 R90
WINDOW 0 0 56 VBottom 2
WINDOW 3 32 56 VTop 2
SYMATTR InstName R5
SYMATTR Value 100k
SYMBOL res 672 176 R0
SYMATTR InstName R6
SYMATTR Value 10K
SYMBOL res 624 128 R90
WINDOW 0 0 56 VBottom 2
WINDOW 3 32 56 VTop 2
SYMATTR InstName R7
SYMATTR Value 1.15Meg
SYMBOL res 432 144 R0
SYMATTR InstName R8
SYMATTR Value 69.8k
SYMBOL res 560 368 R90
WINDOW 0 0 56 VBottom 2
WINDOW 3 32 56 VTop 2
SYMATTR InstName R9
SYMATTR Value 33K
SYMBOL cap 672 368 R90
WINDOW 0 0 32 VBottom 2
WINDOW 3 32 32 VTop 2
SYMATTR InstName C8
SYMATTR Value 680p
SYMBOL cap 592 448 R90
WINDOW 0 0 32 VBottom 2
WINDOW 3 32 32 VTop 2
SYMATTR InstName C9
SYMATTR Value 10p
SYMBOL cap -160 112 R0
SYMATTR InstName C10
SYMATTR Value 47µ
SYMBOL res 1216 96 R0
SYMATTR InstName Rload
SYMATTR Value 2.4
SYMBOL ind 960 112 R270
WINDOW 0 32 56 VTop 2
WINDOW 3 5 56 VBottom 2
SYMATTR InstName L2
SYMATTR Value 4.7µ
SYMBOL cap 1072 112 R0
SYMATTR InstName C7
SYMATTR Value 47µ
TEXT 944 584 Left 2 !.tran 5m startup
TEXT 864 8 Bottom 2 ;LTC3112 - 15V, 2.5A Synchronous Buck-Boost DC/DC Converter\nWide Input Voltage Range Buck-Boost Regulator\nInput: 2.7V to 15V     Output: 5V @ 2.5A (Vin > 5V), Fsw = 750kHz
TEXT -256 608 Left 2 ;Note:\n  If the simulation model is not found please update with the "Sync Release" command from the "Tools" menu.\n  It remains the customer's responsibility to verify proper and reliable operation in the actual application.\n  Component substitution and printed circuit board layout may significantly affect circuit performance or reliability.\n  Contact your local sales representative for assistance. This circuit is distributed to customers only for use with LTC parts.\n  Copyright © 2015 Linear Technology Inc. All rights reserved.
TEXT 80 -192 Left 2 ;Coilcraft XPL7030-472ML
TEXT 496 544 Left 2 ;24uA / A
TEXT -248 -16 Left 2 ;2ms rise time
